<?xml version='1.0' encoding='UTF-8'?>
<!-- generated on 2024-03-25 20:22:10 by Eclipse SUMO netconvert Version 1.19.0
<configuration xmlns:xsi="http://www.w3.org/2001/XMLSchema-instance" xsi:noNamespaceSchemaLocation="http://sumo.dlr.de/xsd/netconvertConfiguration.xsd">

    <input>
        <type-files value="D:\carlaCode\co-simulation\Sumo\util\data/opendrive_netconvert.typ.xml"/>
        <opendrive-files value="D:\tongji\tongji_shi\tongji_shi_fang2\tongji_shi_fang2.xodr"/>
    </input>

    <output>
        <output-file value="C:\Users\ASUS\AppData\Local\Temp\tmp37lca_ug\tongji_shi_fang2.net.xml"/>
        <output.original-names value="true"/>
    </output>

    <processing>
        <geometry.remove value="true"/>
        <geometry.min-radius.fix value="true"/>
    </processing>

    <tls_building>
        <tls.discard-loaded value="true"/>
    </tls_building>

    <junctions>
        <no-turnarounds.except-deadend value="true"/>
    </junctions>

    <formats>
        <opendrive.import-all-lanes value="true"/>
        <opendrive.curve-resolution value="1"/>
    </formats>

</configuration>
-->
<net xmlns:xsi="http://www.w3.org/2001/XMLSchema-instance" version="1.16" junctionCornerDetail="5" rectangularLaneCut="true" limitTurnSpeed="5.50" xsi:noNamespaceSchemaLocation="http://sumo.dlr.de/xsd/net_file.xsd">
  <location netOffset="7813.75,3013.75" convBoundary="0.00,0.00,16627.50,7023.75" origBoundary="-7807.50,-3007.58,8807.73,4003.83" projParameter="!"/>
  <edge id=":14_0" function="internal">
    <lane id=":14_0_0" index="0" disallow="pedestrian tram rail_urban rail rail_electric rail_fast ship" speed="17.88" length="104.31" width="3.75" shape="16592.63,6115.99,15.00 16592.76,6089.96,15.00 16596.98,6063.96,15.00 16601.97,6037.91,15.00 16604.38,6011.75,15.00">
      <param key="origId" value="19_-1"/>
    </lane>
    <lane id=":14_0_1" index="1" disallow="pedestrian tram rail_urban rail rail_electric rail_fast ship" speed="17.88" length="104.31" width="3.75" shape="16596.35,6115.56,15.00 16596.49,6089.59,15.00 16600.72,6063.74,15.00 16605.72,6037.85,15.00 16608.12,6011.75,15.00">
      <param key="origId" value="17_-1"/>
    </lane>
    <lane id=":14_0_2" index="2" disallow="pedestrian tram rail_urban rail rail_electric rail_fast ship" speed="17.88" length="104.31" width="3.75" shape="16600.08,6115.12,15.00 16600.22,6089.23,15.00 16604.46,6063.52,15.00 16609.46,6037.78,15.00 16611.88,6011.75,15.00">
      <param key="origId" value="18_-1"/>
    </lane>
    <lane id=":14_0_3" index="3" disallow="pedestrian tram rail_urban rail rail_electric rail_fast ship" speed="17.88" length="104.31" width="3.75" shape="16603.80,6114.69,15.00 16603.94,6088.86,15.00 16608.20,6063.31,15.00 16613.21,6037.71,15.00 16615.62,6011.75,15.00">
      <param key="origId" value="16_-1"/>
    </lane>
    <lane id=":14_0_4" index="4" disallow="pedestrian tram rail_urban rail rail_electric rail_fast ship" speed="17.88" length="104.31" width="3.75" shape="16607.53,6114.25,15.00 16607.67,6088.49,15.00 16611.93,6063.09,15.00 16616.95,6037.64,15.00 16619.38,6011.75,15.00">
      <param key="origId" value="15_-1"/>
    </lane>
  </edge>
  <edge id=":20_0" function="internal">
    <lane id=":20_0_0" index="0" disallow="pedestrian tram rail_urban rail rail_electric rail_fast ship" speed="17.88" length="104.01" width="3.75" shape="15915.73,19.38,15.00 15811.75,19.38,15.00">
      <param key="origId" value="21_1"/>
    </lane>
    <lane id=":20_0_1" index="1" disallow="pedestrian tram rail_urban rail rail_electric rail_fast ship" speed="17.88" length="104.01" width="3.75" shape="15915.74,15.63,15.00 15811.75,15.62,15.00">
      <param key="origId" value="23_1"/>
    </lane>
    <lane id=":20_0_2" index="2" disallow="pedestrian tram rail_urban rail rail_electric rail_fast ship" speed="17.88" length="104.01" width="3.75" shape="15915.76,11.88,15.00 15811.75,11.88,15.00">
      <param key="origId" value="25_1"/>
    </lane>
    <lane id=":20_0_3" index="3" disallow="pedestrian tram rail_urban rail rail_electric rail_fast ship" speed="17.88" length="104.01" width="3.75" shape="15915.77,8.13,15.00 15811.75,8.12,15.00">
      <param key="origId" value="22_1"/>
    </lane>
    <lane id=":20_0_4" index="4" disallow="pedestrian tram rail_urban rail rail_electric rail_fast ship" speed="17.88" length="104.01" width="3.75" shape="15915.78,4.38,15.00 15811.75,4.38,15.00">
      <param key="origId" value="24_1"/>
    </lane>
  </edge>
  <edge id=":26_0" function="internal">
    <lane id=":26_0_0" index="0" disallow="pedestrian tram rail_urban rail rail_electric rail_fast ship" speed="17.88" length="153.46" width="3.75" shape="16594.58,865.00,15.00 16595.76,831.24,15.00 16600.54,788.41,15.00 16605.74,745.57,15.00 16608.12,711.77,15.00">
      <param key="origId" value="29_-1"/>
    </lane>
    <lane id=":26_0_1" index="1" disallow="pedestrian tram rail_urban rail rail_electric rail_fast ship" speed="17.88" length="153.46" width="3.75" shape="16598.32,864.76,15.00 16599.50,831.04,15.00 16604.29,788.29,15.00 16609.48,745.52,15.00 16611.87,711.76,15.00">
      <param key="origId" value="31_-1"/>
    </lane>
    <lane id=":26_0_2" index="2" disallow="pedestrian tram rail_urban rail rail_electric rail_fast ship" speed="17.88" length="153.46" width="3.75" shape="16602.06,864.52,15.00 16603.24,830.83,15.00 16608.04,788.16,15.00 16613.23,745.47,15.00 16615.62,711.75,15.00">
      <param key="origId" value="30_-1"/>
    </lane>
    <lane id=":26_0_3" index="3" disallow="pedestrian tram rail_urban rail rail_electric rail_fast ship" speed="17.88" length="153.46" width="3.75" shape="16605.80,864.27,15.00 16606.99,830.63,15.00 16611.78,788.03,15.00 16616.98,745.42,15.00 16619.37,711.73,15.00">
      <param key="origId" value="28_-1"/>
    </lane>
    <lane id=":26_0_4" index="4" disallow="pedestrian tram rail_urban rail rail_electric rail_fast ship" speed="17.88" length="153.46" width="3.75" shape="16609.55,864.03,15.00 16610.73,830.42,15.00 16615.53,787.90,15.00 16620.73,745.37,15.00 16623.12,711.72,15.00">
      <param key="origId" value="27_-1"/>
    </lane>
  </edge>
  <edge id=":32_0" function="internal">
    <lane id=":32_0_0" index="0" disallow="pedestrian tram rail_urban rail rail_electric rail_fast ship" speed="17.88" length="120.25" width="3.75" shape="19.38,895.50,15.00 19.38,1015.75,15.00">
      <param key="origId" value="33_1"/>
    </lane>
    <lane id=":32_0_1" index="1" disallow="pedestrian tram rail_urban rail rail_electric rail_fast ship" speed="17.88" length="120.25" width="3.75" shape="15.63,895.50,15.00 15.62,1015.75,15.00">
      <param key="origId" value="36_1"/>
    </lane>
    <lane id=":32_0_2" index="2" disallow="pedestrian tram rail_urban rail rail_electric rail_fast ship" speed="17.88" length="120.25" width="3.75" shape="11.88,895.50,15.00 11.88,1015.75,15.00">
      <param key="origId" value="34_1"/>
    </lane>
    <lane id=":32_0_3" index="3" disallow="pedestrian tram rail_urban rail rail_electric rail_fast ship" speed="17.88" length="120.25" width="3.75" shape="8.12,895.50,15.00 8.12,1015.75,15.00">
      <param key="origId" value="37_1"/>
    </lane>
    <lane id=":32_0_4" index="4" disallow="pedestrian tram rail_urban rail rail_electric rail_fast ship" speed="17.88" length="120.25" width="3.75" shape="4.38,895.50,15.00 4.38,1015.75,15.00">
      <param key="origId" value="35_1"/>
    </lane>
  </edge>
  <edge id=":38_0" function="internal">
    <lane id=":38_0_0" index="0" disallow="pedestrian tram rail_urban rail rail_electric rail_fast ship" speed="17.88" length="104.00" width="3.75" shape="815.75,19.38,15.00 711.77,19.38,15.00">
      <param key="origId" value="41_1"/>
    </lane>
    <lane id=":38_0_1" index="1" disallow="pedestrian tram rail_urban rail rail_electric rail_fast ship" speed="17.88" length="104.00" width="3.75" shape="815.75,15.62,15.00 711.76,15.63,15.00">
      <param key="origId" value="43_1"/>
    </lane>
    <lane id=":38_0_2" index="2" disallow="pedestrian tram rail_urban rail rail_electric rail_fast ship" speed="17.88" length="104.00" width="3.75" shape="815.75,11.88,15.00 711.75,11.88,15.00">
      <param key="origId" value="40_1"/>
    </lane>
    <lane id=":38_0_3" index="3" disallow="pedestrian tram rail_urban rail rail_electric rail_fast ship" speed="17.88" length="104.00" width="3.75" shape="815.75,8.12,15.00 711.73,8.13,15.00">
      <param key="origId" value="42_1"/>
    </lane>
    <lane id=":38_0_4" index="4" disallow="pedestrian tram rail_urban rail rail_electric rail_fast ship" speed="17.88" length="104.00" width="3.75" shape="815.75,4.38,15.00 711.72,4.38,15.00">
      <param key="origId" value="39_1"/>
    </lane>
  </edge>
  <edge id=":44_0" function="internal">
    <lane id=":44_0_0" index="0" disallow="pedestrian tram rail_urban rail rail_electric rail_fast ship" speed="17.88" length="104.00" width="3.75" shape="711.75,7004.38,15.00 815.75,7004.38,15.00">
      <param key="origId" value="45_-1"/>
    </lane>
    <lane id=":44_0_1" index="1" disallow="pedestrian tram rail_urban rail rail_electric rail_fast ship" speed="17.88" length="104.00" width="3.75" shape="711.75,7008.12,15.00 815.75,7008.12,15.00">
      <param key="origId" value="49_-1"/>
    </lane>
    <lane id=":44_0_2" index="2" disallow="pedestrian tram rail_urban rail rail_electric rail_fast ship" speed="17.88" length="104.00" width="3.75" shape="711.75,7011.88,15.00 815.75,7011.88,15.00">
      <param key="origId" value="47_-1"/>
    </lane>
    <lane id=":44_0_3" index="3" disallow="pedestrian tram rail_urban rail rail_electric rail_fast ship" speed="17.88" length="104.00" width="3.75" shape="711.75,7015.62,15.00 815.75,7015.62,15.00">
      <param key="origId" value="48_-1"/>
    </lane>
    <lane id=":44_0_4" index="4" disallow="pedestrian tram rail_urban rail rail_electric rail_fast ship" speed="17.88" length="104.00" width="3.75" shape="711.75,7019.38,15.00 815.75,7019.38,15.00">
      <param key="origId" value="46_-1"/>
    </lane>
  </edge>
  <edge id=":50_0" function="internal">
    <lane id=":50_0_0" index="0" disallow="pedestrian tram rail_urban rail rail_electric rail_fast ship" speed="17.88" length="128.81" width="3.75" shape="19.38,6011.75,15.00 21.73,6041.73,15.00 26.67,6076.18,15.00 31.02,6110.60,15.00 31.59,6140.51,15.00">
      <param key="origId" value="52_1"/>
    </lane>
    <lane id=":50_0_1" index="1" disallow="pedestrian tram rail_urban rail rail_electric rail_fast ship" speed="17.88" length="128.81" width="3.75" shape="15.62,6011.75,15.00 17.98,6041.68,15.00 22.93,6076.01,15.00 27.28,6110.32,15.00 27.86,6140.17,15.00">
      <param key="origId" value="55_1"/>
    </lane>
    <lane id=":50_0_2" index="2" disallow="pedestrian tram rail_urban rail rail_electric rail_fast ship" speed="17.88" length="128.81" width="3.75" shape="11.88,6011.75,15.00 14.23,6041.63,15.00 19.19,6075.84,15.00 23.55,6110.03,15.00 24.12,6139.83,15.00">
      <param key="origId" value="54_1"/>
    </lane>
    <lane id=":50_0_3" index="3" disallow="pedestrian tram rail_urban rail rail_electric rail_fast ship" speed="17.88" length="128.81" width="3.75" shape="8.12,6011.75,15.00 10.49,6041.57,15.00 15.44,6075.67,15.00 19.81,6109.74,15.00 20.39,6139.49,15.00">
      <param key="origId" value="53_1"/>
    </lane>
    <lane id=":50_0_4" index="4" disallow="pedestrian tram rail_urban rail rail_electric rail_fast ship" speed="17.88" length="128.81" width="3.75" shape="4.38,6011.75,15.00 6.74,6041.52,15.00 11.70,6075.50,15.00 16.07,6109.46,15.00 16.65,6139.15,15.00">
      <param key="origId" value="51_1"/>
    </lane>
  </edge>
  <edge id=":8_0" function="internal">
    <lane id=":8_0_0" index="0" disallow="pedestrian tram rail_urban rail rail_electric rail_fast ship" speed="17.88" length="103.99" width="3.75" shape="15811.75,7004.38,15.00 15915.72,7004.37,15.00">
      <param key="origId" value="12_-1"/>
    </lane>
    <lane id=":8_0_1" index="1" disallow="pedestrian tram rail_urban rail rail_electric rail_fast ship" speed="17.88" length="103.99" width="3.75" shape="15811.75,7008.12,15.00 15915.73,7008.12,15.00">
      <param key="origId" value="10_-1"/>
    </lane>
    <lane id=":8_0_2" index="2" disallow="pedestrian tram rail_urban rail rail_electric rail_fast ship" speed="17.88" length="103.99" width="3.75" shape="15811.75,7011.88,15.00 15915.74,7011.87,15.00">
      <param key="origId" value="9_-1"/>
    </lane>
    <lane id=":8_0_3" index="3" disallow="pedestrian tram rail_urban rail rail_electric rail_fast ship" speed="17.88" length="103.99" width="3.75" shape="15811.75,7015.62,15.00 15915.76,7015.62,15.00">
      <param key="origId" value="13_-1"/>
    </lane>
    <lane id=":8_0_4" index="4" disallow="pedestrian tram rail_urban rail rail_electric rail_fast ship" speed="17.88" length="103.99" width="3.75" shape="15811.75,7019.38,15.00 15915.77,7019.37,15.00">
      <param key="origId" value="11_-1"/>
    </lane>
  </edge>
  <edge id="-0" from="8" to="14" priority="1" type="shoulder|driving|driving|driving|driving|driving|shoulder" shape="15915.79,7023.75,15.00 15916.79,7023.74,15.00 15917.81,7023.74,15.00 15918.82,7023.73,15.00 15919.84,7023.72,15.00 15920.85,7023.71,15.00 15921.86,7023.70,15.00 15922.88,7023.69,15.00 15923.89,7023.68,15.00 15924.91,7023.66,15.00 15925.92,7023.65,15.00 15926.93,7023.63,15.00 15927.95,7023.61,15.00 15928.96,7023.59,15.00 15929.98,7023.56,15.00 15930.99,7023.54,15.00 15932.01,7023.52,15.00 15933.02,7023.49,15.00 15934.03,7023.46,15.00 15935.05,7023.43,15.00 15936.06,7023.40,15.00 15937.07,7023.37,15.00 15938.09,7023.33,15.00 15939.10,7023.30,15.00 15940.12,7023.26,15.00 15941.13,7023.22,15.00 15942.14,7023.18,15.00 15943.16,7023.14,15.00 15944.17,7023.10,15.00 15945.18,7023.05,15.00 15946.20,7023.01,15.00 15947.21,7022.96,15.00 15948.22,7022.91,15.00 15949.24,7022.86,15.00 15950.25,7022.81,15.00 15951.26,7022.76,15.00 15952.27,7022.70,15.00 15953.29,7022.65,15.00 15954.30,7022.59,15.00 15955.31,7022.53,15.00 15956.32,7022.47,15.00 15957.34,7022.41,15.00 15958.35,7022.35,15.00 15959.36,7022.28,15.00 15960.37,7022.22,15.00 15961.39,7022.15,15.00 15962.40,7022.08,15.00 15963.41,7022.01,15.00 15964.42,7021.94,15.00 15965.43,7021.87,15.00 15966.44,7021.79,15.00 15967.46,7021.72,15.00 15968.47,7021.64,15.00 15969.48,7021.56,15.00 15970.49,7021.48,15.00 15971.50,7021.40,15.00 15972.51,7021.31,15.00 15973.52,7021.23,15.00 15974.53,7021.14,15.00 15975.54,7021.06,15.00 15976.55,7020.97,15.00 15977.56,7020.88,15.00 15978.57,7020.78,15.00 15979.58,7020.69,15.00 15980.59,7020.60,15.00 15981.60,7020.50,15.00 15982.61,7020.40,15.00 15983.62,7020.30,15.00 15984.63,7020.20,15.00 15985.64,7020.10,15.00 15986.65,7020.00,15.00 15987.66,7019.89,15.00 15988.67,7019.79,15.00 15989.68,7019.68,15.00 15990.68,7019.57,15.00 15991.69,7019.46,15.00 15992.70,7019.35,15.00 15993.71,7019.23,15.00 15994.72,7019.12,15.00 15995.72,7019.00,15.00 15996.73,7018.88,15.00 15997.74,7018.76,15.00 15998.75,7018.64,15.00 15999.75,7018.52,15.00 16000.76,7018.40,15.00 16001.77,7018.27,15.00 16002.77,7018.15,15.00 16003.78,7018.02,15.00 16004.78,7017.89,15.00 16005.79,7017.76,15.00 16006.80,7017.63,15.00 16007.80,7017.49,15.00 16008.81,7017.36,15.00 16009.81,7017.22,15.00 16010.82,7017.08,15.00 16011.82,7016.94,15.00 16012.83,7016.80,15.00 16013.83,7016.66,15.00 16014.83,7016.52,15.00 16015.84,7016.37,15.00 16016.84,7016.23,15.00 16017.84,7016.08,15.00 16018.85,7015.93,15.00 16019.85,7015.78,15.00 16020.85,7015.63,15.00 16021.86,7015.47,15.00 16022.86,7015.32,15.00 16023.86,7015.16,15.00 16024.86,7015.00,15.00 16025.86,7014.84,15.00 16026.87,7014.68,15.00 16027.87,7014.52,15.00 16028.87,7014.36,15.00 16029.87,7014.19,15.00 16030.87,7014.02,15.00 16031.87,7013.86,15.00 16032.87,7013.69,15.00 16033.87,7013.52,15.00 16034.87,7013.34,15.00 16035.87,7013.17,15.00 16036.87,7012.99,15.00 16037.87,7012.82,15.00 16038.86,7012.64,15.00 16039.86,7012.46,15.00 16040.86,7012.28,15.00 16041.86,7012.10,15.00 16042.86,7011.91,15.00 16043.85,7011.73,15.00 16044.85,7011.54,15.00 16045.85,7011.35,15.00 16046.84,7011.16,15.00 16047.84,7010.97,15.00 16048.84,7010.78,15.00 16049.83,7010.59,15.00 16050.83,7010.39,15.00 16051.82,7010.20,15.00 16052.82,7010.00,15.00 16053.81,7009.80,15.00 16054.81,7009.60,15.00 16055.80,7009.40,15.00 16056.79,7009.19,15.00 16057.79,7008.99,15.00 16058.78,7008.78,15.00 16059.77,7008.57,15.00 16060.76,7008.36,15.00 16061.76,7008.15,15.00 16062.75,7007.94,15.00 16063.74,7007.73,15.00 16064.73,7007.51,15.00 16065.72,7007.29,15.00 16066.71,7007.08,15.00 16067.70,7006.86,15.00 16068.69,7006.64,15.00 16069.68,7006.42,15.00 16070.67,7006.19,15.00 16071.66,7005.97,15.00 16072.65,7005.74,15.00 16073.64,7005.51,15.00 16074.63,7005.28,15.00 16075.61,7005.05,15.00 16076.60,7004.82,15.00 16077.59,7004.59,15.00 16078.58,7004.35,15.00 16079.56,7004.12,15.00 16080.55,7003.88,15.00 16081.53,7003.64,15.00 16082.52,7003.40,15.00 16083.50,7003.16,15.00 16084.49,7002.91,15.00 16085.47,7002.67,15.00 16086.46,7002.42,15.00 16087.44,7002.18,15.00 16088.42,7001.93,15.00 16089.41,7001.68,15.00 16090.39,7001.43,15.00 16091.37,7001.17,15.00 16092.35,7000.92,15.00 16093.33,7000.66,15.00 16094.32,7000.41,15.00 16095.30,7000.15,15.00 16096.28,6999.89,15.00 16097.26,6999.63,15.00 16098.24,6999.36,15.00 16099.22,6999.10,15.00 16100.19,6998.83,15.00 16101.17,6998.57,15.00 16102.15,6998.30,15.00 16103.13,6998.03,15.00 16104.11,6997.76,15.00 16105.08,6997.48,15.00 16106.06,6997.21,15.00 16107.04,6996.93,15.00 16108.01,6996.66,15.00 16108.99,6996.38,15.00 16109.96,6996.10,15.00 16110.94,6995.82,15.00 16111.91,6995.54,15.00 16112.89,6995.25,15.00 16113.86,6994.97,15.00 16114.83,6994.68,15.00 16115.80,6994.39,15.00 16116.78,6994.10,15.00 16117.75,6993.81,15.00 16118.72,6993.52,15.00 16119.69,6993.23,15.00 16120.66,6992.93,15.00 16121.63,6992.64,15.00 16122.60,6992.34,15.00 16123.57,6992.04,15.00 16124.54,6991.74,15.00 16125.51,6991.44,15.00 16126.47,6991.13,15.00 16127.44,6990.83,15.00 16128.41,6990.52,15.00 16129.38,6990.22,15.00 16130.34,6989.91,15.00 16131.31,6989.60,15.00 16132.27,6989.29,15.00 16133.24,6988.97,15.00 16134.20,6988.66,15.00 16135.17,6988.34,15.00 16136.13,6988.03,15.00 16137.09,6987.71,15.00 16138.05,6987.39,15.00 16139.02,6987.07,15.00 16139.98,6986.74,15.00 16140.94,6986.42,15.00 16141.90,6986.09,15.00 16142.86,6985.77,15.00 16143.82,6985.44,15.00 16144.78,6985.11,15.00 16145.74,6984.78,15.00 16146.70,6984.45,15.00 16147.66,6984.11,15.00 16148.61,6983.78,15.00 16149.57,6983.44,15.00 16150.53,6983.11,15.00 16151.48,6982.77,15.00 16152.44,6982.43,15.00 16153.39,6982.08,15.00 16154.35,6981.74,15.00 16155.30,6981.40,15.00 16156.25,6981.05,15.00 16157.21,6980.70,15.00 16158.16,6980.36,15.00 16159.11,6980.01,15.00 16160.06,6979.66,15.00 16161.01,6979.30,15.00 16161.97,6978.95,15.00 16162.92,6978.59,15.00 16163.86,6978.24,15.00 16164.81,6977.88,15.00 16165.76,6977.52,15.00 16166.71,6977.16,15.00 16167.66,6976.80,15.00 16168.60,6976.43,15.00 16169.55,6976.07,15.00 16170.50,6975.70,15.00 16171.44,6975.33,15.00 16172.39,6974.97,15.00 16173.33,6974.60,15.00 16174.28,6974.22,15.00 16175.22,6973.85,15.00 16176.16,6973.48,15.00 16177.10,6973.10,15.00 16178.05,6972.72,15.00 16178.99,6972.35,15.00 16179.93,6971.97,15.00 16180.87,6971.59,15.00 16181.81,6971.20,15.00 16182.75,6970.82,15.00 16183.68,6970.44,15.00 16184.62,6970.05,15.00 16185.56,6969.66,15.00 16186.50,6969.27,15.00 16187.43,6968.88,15.00 16188.37,6968.49,15.00 16189.30,6968.10,15.00 16190.24,6967.70,15.00 16191.17,6967.31,15.00 16192.10,6966.91,15.00 16193.04,6966.51,15.00 16193.97,6966.11,15.00 16194.90,6965.71,15.00 16195.83,6965.31,15.00 16196.76,6964.91,15.00 16197.69,6964.50,15.00 16198.62,6964.09,15.00 16199.55,6963.69,15.00 16200.48,6963.28,15.00 16201.41,6962.87,15.00 16202.33,6962.46,15.00 16203.26,6962.04,15.00 16204.19,6961.63,15.00 16205.11,6961.21,15.00 16206.04,6960.80,15.00 16206.96,6960.38,15.00 16207.88,6959.96,15.00 16208.81,6959.54,15.00 16209.73,6959.12,15.00 16210.65,6958.69,15.00 16211.57,6958.27,15.00 16212.49,6957.84,15.00 16213.41,6957.41,15.00 16214.33,6956.99,15.00 16215.25,6956.56,15.00 16216.17,6956.12,15.00 16217.08,6955.69,15.00 16218.00,6955.26,15.00 16218.92,6954.82,15.00 16219.83,6954.39,15.00 16220.75,6953.95,15.00 16221.66,6953.51,15.00 16222.58,6953.07,15.00 16223.49,6952.63,15.00 16224.40,6952.18,15.00 16225.31,6951.74,15.00 16226.22,6951.29,15.00 16227.13,6950.85,15.00 16228.04,6950.40,15.00 16228.95,6949.95,15.00 16229.86,6949.50,15.00 16230.77,6949.04,15.00 16231.68,6948.59,15.00 16232.58,6948.14,15.00 16233.49,6947.68,15.00 16234.39,6947.22,15.00 16235.30,6946.76,15.00 16236.20,6946.30,15.00 16237.11,6945.84,15.00 16238.01,6945.38,15.00 16238.91,6944.92,15.00 16239.81,6944.45,15.00 16240.71,6943.98,15.00 16241.61,6943.52,15.00 16242.51,6943.05,15.00 16243.41,6942.58,15.00 16244.31,6942.11,15.00 16245.21,6941.63,15.00 16246.10,6941.16,15.00 16247.00,6940.68,15.00 16247.89,6940.21,15.00 16248.79,6939.73,15.00 16249.68,6939.25,15.00 16250.58,6938.77,15.00 16251.47,6938.29,15.00 16252.36,6937.80,15.00 16253.25,6937.32,15.00 16254.14,6936.83,15.00 16255.03,6936.35,15.00 16255.92,6935.86,15.00 16256.81,6935.37,15.00 16257.70,6934.88,15.00 16258.58,6934.39,15.00 16259.47,6933.89,15.00 16260.36,6933.40,15.00 16261.24,6932.90,15.00 16262.12,6932.41,15.00 16263.01,6931.91,15.00 16263.89,6931.41,15.00 16264.77,6930.91,15.00 16265.65,6930.40,15.00 16266.53,6929.90,15.00 16267.41,6929.40,15.00 16268.29,6928.89,15.00 16269.17,6928.38,15.00 16270.05,6927.88,15.00 16270.93,6927.37,15.00 16271.80,6926.86,15.00 16272.68,6926.34,15.00 16273.55,6925.83,15.00 16274.43,6925.32,15.00 16275.30,6924.80,15.00 16276.17,6924.28,15.00 16277.05,6923.76,15.00 16277.92,6923.24,15.00 16278.79,6922.72,15.00 16279.66,6922.20,15.00 16280.52,6921.68,15.00 16281.39,6921.15,15.00 16282.26,6920.63,15.00 16283.13,6920.10,15.00 16283.99,6919.57,15.00 16284.86,6919.04,15.00 16285.72,6918.51,15.00 16286.59,6917.98,15.00 16287.45,6917.45,15.00 16288.31,6916.91,15.00 16289.17,6916.38,15.00 16290.03,6915.84,15.00 16290.89,6915.30,15.00 16291.75,6914.76,15.00 16292.61,6914.22,15.00 16293.47,6913.68,15.00 16294.32,6913.14,15.00 16295.18,6912.59,15.00 16296.03,6912.05,15.00 16296.89,6911.50,15.00 16297.74,6910.95,15.00 16298.60,6910.40,15.00 16299.45,6909.85,15.00 16300.30,6909.30,15.00 16301.15,6908.75,15.00 16302.00,6908.19,15.00 16302.85,6907.64,15.00 16303.70,6907.08,15.00 16304.54,6906.52,15.00 16305.39,6905.97,15.00 16306.23,6905.41,15.00 16307.08,6904.84,15.00 16307.92,6904.28,15.00 16308.77,6903.72,15.00 16309.61,6903.15,15.00 16310.45,6902.59,15.00 16311.29,6902.02,15.00 16312.13,6901.45,15.00 16312.97,6900.88,15.00 16313.81,6900.31,15.00 16314.65,6899.74,15.00 16315.48,6899.16,15.00 16316.32,6898.59,15.00 16317.15,6898.01,15.00 16317.99,6897.44,15.00 16318.82,6896.86,15.00 16319.65,6896.28,15.00 16320.49,6895.70,15.00 16321.32,6895.12,15.00 16322.15,6894.54,15.00 16322.98,6893.95,15.00 16323.80,6893.37,15.00 16324.63,6892.78,15.00 16325.46,6892.19,15.00 16326.28,6891.60,15.00 16327.11,6891.01,15.00 16327.93,6890.42,15.00 16328.76,6889.83,15.00 16329.58,6889.24,15.00 16330.40,6888.64,15.00 16331.22,6888.05,15.00 16332.04,6887.45,15.00 16332.86,6886.85,15.00 16333.68,6886.25,15.00 16334.50,6885.65,15.00 16335.31,6885.05,15.00 16336.13,6884.45,15.00 16336.94,6883.84,15.00 16337.76,6883.24,15.00 16338.57,6882.63,15.00 16339.38,6882.02,15.00 16340.20,6881.42,15.00 16341.01,6880.81,15.00 16341.82,6880.19,15.00 16342.62,6879.58,15.00 16343.43,6878.97,15.00 16344.24,6878.36,15.00 16345.05,6877.74,15.00 16345.85,6877.12,15.00 16346.66,6876.50,15.00 16347.46,6875.89,15.00 16348.26,6875.27,15.00 16349.06,6874.64,15.00 16349.86,6874.02,15.00 16350.66,6873.40,15.00 16351.46,6872.77,15.00 16352.26,6872.15,15.00 16353.06,6871.52,15.00 16353.85,6870.89,15.00 16354.65,6870.26,15.00 16355.44,6869.63,15.00 16356.24,6869.00,15.00 16357.03,6868.37,15.00 16357.82,6867.73,15.00 16358.61,6867.10,15.00 16359.40,6866.46,15.00 16360.19,6865.83,15.00 16360.98,6865.19,15.00 16361.77,6864.55,15.00 16362.55,6863.91,15.00 16363.34,6863.27,15.00 16364.13,6862.62,15.00 16364.91,6861.98,15.00 16365.69,6861.33,15.00 16366.47,6860.69,15.00 16367.25,6860.04,15.00 16368.03,6859.39,15.00 16368.81,6858.74,15.00 16369.59,6858.09,15.00 16370.37,6857.44,15.00 16371.14,6856.79,15.00 16371.92,6856.13,15.00 16372.69,6855.48,15.00 16373.47,6854.82,15.00 16374.24,6854.17,15.00 16375.01,6853.51,15.00 16375.78,6852.85,15.00 16376.55,6852.19,15.00 16377.32,6851.53,15.00 16378.09,6850.86,15.00 16378.86,6850.20,15.00 16379.62,6849.53,15.00 16380.39,6848.87,15.00 16381.15,6848.20,15.00 16381.91,6847.53,15.00 16382.68,6846.86,15.00 16383.44,6846.19,15.00 16384.20,6845.52,15.00 16384.96,6844.85,15.00 16385.71,6844.17,15.00 16386.47,6843.50,15.00 16387.23,6842.82,15.00 16387.98,6842.15,15.00 16388.74,6841.47,15.00 16389.49,6840.79,15.00 16390.24,6840.11,15.00 16390.99,6839.43,15.00 16391.74,6838.75,15.00 16392.49,6838.06,15.00 16393.24,6837.38,15.00 16393.99,6836.69,15.00 16394.74,6836.01,15.00 16395.48,6835.32,15.00 16396.23,6834.63,15.00 16396.97,6833.94,15.00 16397.71,6833.25,15.00 16398.46,6832.56,15.00 16399.20,6831.86,15.00 16399.94,6831.17,15.00 16400.67,6830.48,15.00 16401.41,6829.78,15.00 16402.15,6829.08,15.00 16402.88,6828.38,15.00 16403.62,6827.68,15.00 16404.35,6826.98,15.00 16405.09,6826.28,15.00 16405.82,6825.58,15.00 16406.55,6824.88,15.00 16407.28,6824.17,15.00 16408.01,6823.47,15.00 16408.73,6822.76,15.00 16409.46,6822.05,15.00 16410.19,6821.34,15.00 16410.91,6820.63,15.00 16411.63,6819.92,15.00 16412.36,6819.21,15.00 16413.08,6818.50,15.00 16413.80,6817.78,15.00 16414.52,6817.07,15.00 16415.24,6816.35,15.00 16415.95,6815.64,15.00 16416.67,6814.92,15.00 16417.39,6814.20,15.00 16418.10,6813.48,15.00 16418.81,6812.76,15.00 16419.53,6812.04,15.00 16420.24,6811.31,15.00 16420.95,6810.59,15.00 16421.66,6809.86,15.00 16422.37,6809.14,15.00 16423.07,6808.41,15.00 16423.78,6807.68,15.00 16424.48,6806.95,15.00 16425.19,6806.22,15.00 16425.89,6805.49,15.00 16426.59,6804.76,15.00 16427.29,6804.03,15.00 16427.99,6803.29,15.00 16428.69,6802.56,15.00 16429.39,6801.82,15.00 16430.09,6801.09,15.00 16430.78,6800.35,15.00 16431.48,6799.61,15.00 16432.17,6798.87,15.00 16432.86,6798.13,15.00 16433.55,6797.38,15.00 16434.25,6796.64,15.00 16434.93,6795.90,15.00 16435.62,6795.15,15.00 16436.31,6794.41,15.00 16437.00,6793.66,15.00 16437.68,6792.91,15.00 16438.37,6792.16,15.00 16439.05,6791.41,15.00 16439.73,6790.66,15.00 16440.41,6789.91,15.00 16441.09,6789.16,15.00 16441.77,6788.40,15.00 16442.45,6787.65,15.00 16443.12,6786.89,15.00 16443.80,6786.14,15.00 16444.47,6785.38,15.00 16445.15,6784.62,15.00 16445.82,6783.86,15.00 16446.49,6783.10,15.00 16447.16,6782.34,15.00 16447.83,6781.58,15.00 16448.50,6780.81,15.00 16449.16,6780.05,15.00 16449.83,6779.28,15.00 16450.49,6778.52,15.00 16451.16,6777.75,15.00 16451.82,6776.98,15.00 16452.48,6776.21,15.00 16453.14,6775.44,15.00 16453.80,6774.67,15.00 16454.46,6773.90,15.00 16455.11,6773.13,15.00 16455.77,6772.35,15.00 16456.42,6771.58,15.00 16457.08,6770.80,15.00 16457.73,6770.02,15.00 16458.38,6769.25,15.00 16459.03,6768.47,15.00 16459.68,6767.69,15.00 16460.33,6766.91,15.00 16460.97,6766.13,15.00 16461.62,6765.35,15.00 16462.26,6764.56,15.00 16462.91,6763.78,15.00 16463.55,6762.99,15.00 16464.19,6762.21,15.00 16464.83,6761.42,15.00 16465.47,6760.63,15.00 16466.11,6759.84,15.00 16466.75,6759.05,15.00 16467.38,6758.26,15.00 16468.02,6757.47,15.00 16468.65,6756.68,15.00 16469.28,6755.89,15.00 16469.91,6755.09,15.00 16470.54,6754.30,15.00 16471.17,6753.50,15.00 16471.80,6752.71,15.00 16472.42,6751.91,15.00 16473.05,6751.11,15.00 16473.67,6750.31,15.00 16474.30,6749.51,15.00 16474.92,6748.71,15.00 16475.54,6747.91,15.00 16476.16,6747.10,15.00 16476.78,6746.30,15.00 16477.40,6745.49,15.00 16478.01,6744.69,15.00 16478.63,6743.88,15.00 16479.24,6743.07,15.00 16479.85,6742.27,15.00 16480.47,6741.46,15.00 16481.08,6740.65,15.00 16481.69,6739.84,15.00 16482.29,6739.02,15.00 16482.90,6738.21,15.00 16483.51,6737.40,15.00 16484.11,6736.58,15.00 16484.71,6735.77,15.00 16485.32,6734.95,15.00 16485.92,6734.14,15.00 16486.52,6733.32,15.00 16487.12,6732.50,15.00 16487.71,6731.68,15.00 16488.31,6730.86,15.00 16488.91,6730.04,15.00 16489.50,6729.22,15.00 16490.09,6728.39,15.00 16490.68,6727.57,15.00 16491.28,6726.74,15.00 16491.86,6725.92,15.00 16492.45,6725.09,15.00 16493.04,6724.27,15.00 16493.63,6723.44,15.00 16494.21,6722.61,15.00 16494.79,6721.78,15.00 16495.38,6720.95,15.00 16495.96,6720.12,15.00 16496.54,6719.29,15.00 16497.12,6718.45,15.00 16497.69,6717.62,15.00 16498.27,6716.78,15.00 16498.84,6715.95,15.00 16499.42,6715.11,15.00 16499.99,6714.28,15.00 16500.56,6713.44,15.00 16501.13,6712.60,15.00 16501.70,6711.76,15.00 16502.27,6710.92,15.00 16502.84,6710.08,15.00 16503.40,6709.24,15.00 16503.97,6708.39,15.00 16504.53,6707.55,15.00 16505.09,6706.71,15.00 16505.65,6705.86,15.00 16506.21,6705.01,15.00 16506.77,6704.17,15.00 16507.33,6703.32,15.00 16507.88,6702.47,15.00 16508.44,6701.62,15.00 16508.99,6700.77,15.00 16509.54,6699.92,15.00 16510.10,6699.07,15.00 16510.65,6698.22,15.00 16511.19,6697.36,15.00 16511.74,6696.51,15.00 16512.29,6695.66,15.00 16512.83,6694.80,15.00 16513.38,6693.94,15.00 16513.92,6693.09,15.00 16514.46,6692.23,15.00 16515.00,6691.37,15.00 16515.54,6690.51,15.00 16516.08,6689.65,15.00 16516.61,6688.79,15.00 16517.15,6687.93,15.00 16517.68,6687.07,15.00 16518.22,6686.20,15.00 16518.75,6685.34,15.00 16519.28,6684.48,15.00 16519.81,6683.61,15.00 16520.33,6682.74,15.00 16520.86,6681.88,15.00 16521.39,6681.01,15.00 16521.91,6680.14,15.00 16522.43,6679.27,15.00 16522.95,6678.40,15.00 16523.47,6677.53,15.00 16523.99,6676.66,15.00 16524.51,6675.79,15.00 16525.03,6674.91,15.00 16525.54,6674.04,15.00 16526.06,6673.17,15.00 16526.57,6672.29,15.00 16527.08,6671.42,15.00 16527.59,6670.54,15.00 16528.10,6669.66,15.00 16528.61,6668.78,15.00 16529.12,6667.90,15.00 16529.62,6667.03,15.00 16530.12,6666.15,15.00 16530.63,6665.26,15.00 16531.13,6664.